LAMMPS (29 Sep 2021 - Update 1)
plugin load libdeepmd_lmp.so
Loading plugin: deepmd pair style v2.0 by Han Wang
Loading plugin: compute deeptensor/atom v2.0 by Han Wang
Loading plugin: fix dplr v2.0 by Han Wang
# bulk water

units           metal
boundary        p p p
atom_style      atomic #重要  full:molecular + charge; atomic:only the default values;charge:charge

neighbor        2.0 bin #截断半径相关的东西
neigh_modify    every 10 delay 0 check no #邻近原子列表更新速度

read_data       MAPbI3cub.lmp
Reading data file ...
  triclinic box = (1.7976900 0.0049470000 0.023884000) to (52.490531 50.008147 51.425485) with tilt (0.010213000 1.0595680 0.0091150000)
  reading atoms ...
  6336 atoms

#mass            1 12.010700 # C
#mass            3 14.006700 # N
#mass           3 1.007940 # H
#mass            4 207.199997 # Pb
#mass            2 126.904472 # I

#read_data	MAPbI3cubH.lmp

#pair_style	deepmd NVTcub450kes.pb
pair_style      deepmd ../dp7/dp7.pb
pair_coeff  * *

#velocity        all create 450.0 23456789 #

#minimize 	1.0e-4 1.0e-6 100 1000

fix             1 all nvt temp 450.0 450.0 0.1 #fix [ID] [group-ID] [style] [args]
#fix 		1 all npt temp 450.0 450.0 0.1 iso 1 1 1
#fix 		mobile all nve/limit 0.1
#neighbor 	0.3 bin

timestep        0.001 ##步长
thermo_style    custom step pe ke etotal temp press vol
thermo          100
#dump            1 all atom 100 MAPbI3cub.dump

dump		1 all custom 100 tem.dump id type x y z mass #element #dump [ID] [group ID] [style] [timestep] [filename] [args]
#dump_modify	1 element C N Pb I

run             10000

CITE-CITE-CITE-CITE-CITE-CITE-CITE-CITE-CITE-CITE-CITE-CITE-CITE

Your simulation uses code contributions which should be cited:

- USER-DEEPMD package:

@article{Wang_ComputPhysCommun_2018_v228_p178,
  author = {Wang, Han and Zhang, Linfeng and Han, Jiequn and E, Weinan},
  doi = {10.1016/j.cpc.2018.03.016},
  url = {https://doi.org/10.1016/j.cpc.2018.03.016},
  year = 2018,
  month = {jul},
  publisher = {Elsevier {BV}},
  volume = 228,
  journal = {Comput. Phys. Commun.},
  title = {{DeePMD-kit: A deep learning package for many-body potential energy representation and molecular dynamics}},
  pages = {178--184}
}

CITE-CITE-CITE-CITE-CITE-CITE-CITE-CITE-CITE-CITE-CITE-CITE-CITE

  update every 10 steps, delay 0 steps, check no
Step PotEng KinEng TotEng Temp Press Volume
0    -23028.03            0    -23028.03            0    10495.594       130293
Averages over the last 51 of 101 rows, steps 5000 to 10000:
PotEng KinEng TotEng Temp Press Volume
-41411.8 1191.51 -40220.3 1455.08 -2399.6 130293
Loop time of 527.249 on 1 procs for 10000 steps with 6336 atoms

Unloading pair style deepmd
Unloading compute style deepmd
Unloading fix style deepmd
